testData/tamu2000/pfcases_100_zone16/Equ_tx2000_hr_5179_mod_v23_zone16_pslf.raw
0  100.000 
THIS IS A SYNTHETIC POWER SYSTEM MODEL THAT DOES NOT REPRESE
DATA RESEARCH PROJECT AND CONTAINS NO CEII.
1048,  2,  164.884,  24.821,  0.000,  0.000,  1,  1.00000,  -89.6581,  'MONAHANS',  18.000,  9
1049,  2,  110.778,  33.027,  0.000,  0.000,  1,  1.00000,  -79.2219,  'MONAHANS',  18.000,  9
1053,  2,  97.057,  -15.733,  0.000,  0.000,  1,  1.00000,  -110.0364,  'MONAHANS',  230.00,  9
1072,  3,  98.842,  -1.488,  0.000,  0.000,  1,  1.01000,  -110.6337,  'ODESSA 1',  18.000,  9
1073,  2,  68.445,  1.696,  0.000,  0.000,  1,  1.01000,  -107.2972,  'ODESSA 1',  18.000,  9
1074,  2,  70.856,  5.136,  0.000,  0.000,  1,  1.01000,  -107.7483,  'ODESSA 1',  18.000,  9
1075,  2,  91.494,  2.124,  0.000,  0.000,  1,  1.01000,  -109.6991,  'ODESSA 1',  18.000,  9
1076,  2,  176.488,  -10.575,  0.000,  0.000,  1,  1.01000,  -113.6317,  'ODESSA 1',  18.000,  9
1077,  2,  72.752,  4.452,  0.000,  0.000,  1,  1.01000,  -108.0677,  'ODESSA 1',  18.000,  9
1081,  2,  501.411,  -88.921,  0.000,  0.000,  1,  1.01000,  -114.8678,  'ODESSA 1',  230.00,  9
2001,  1,  0.000,  0.000,  0.000,  0.000,  2,  0.99926,  -127.5618,  'PARIS 3 ',  161.00,  11
2002,  1,  0.000,  0.000,  0.000,  0.000,  2,  1.02189,  -125.4638,  'SAVOY 0 ',  500.00,  11
2003,  1,  0.000,  0.000,  0.000,  0.000,  2,  1.01910,  -127.8958,  'SAVOY 1 ',  161.00,  11
2004,  2,  0.000,  0.000,  0.000,  0.000,  2,  1.02000,  -124.5149,  'SAVOY 2 ',  13.800,  11
2005,  2,  0.000,  0.000,  0.000,  0.000,  2,  1.02000,  -124.3541,  'SAVOY 3 ',  13.800,  11
2006,  2,  0.000,  0.000,  0.000,  0.000,  2,  1.02000,  -123.7312,  'SAVOY 4 ',  13.800,  11
2007,  1,  0.000,  0.000,  0.000,  0.000,  2,  1.00626,  -126.7243,  'HONEY GR',  161.00,  11
2009,  1,  0.001,  -94.520,  0.000,  0.000,  2,  1.03000,  -130.4389,  'IOWA PAR',  161.00,  11
2015,  1,  0.000,  0.000,  0.000,  0.000,  2,  1.01767,  -133.8679,  'FORESTBU',  161.00,  11
2016,  1,  0.000,  0.000,  0.000,  0.000,  2,  1.01775,  -133.1461,  'SHERMAN ',  161.00,  11
2019,  2,  30.056,  32.920,  0.000,  0.000,  2,  1.04000,  -126.3965,  'PANHANDL',  20.000,  10
2020,  1,  0.000,  0.000,  0.000,  0.000,  2,  1.01686,  -127.7192,  'WICHITA ',  161.00,  11
2021,  1,  0.000,  0.000,  0.000,  0.000,  2,  1.02091,  -123.6815,  'PARIS 2 ',  500.00,  11
2022,  1,  0.000,  0.000,  0.000,  0.000,  2,  1.01013,  -126.0852,  'PARIS 2 ',  161.00,  11
2023,  2,  0.000,  0.000,  0.000,  0.000,  2,  1.02091,  -123.6815,  'PARIS 2 ',  13.800,  11
2024,  2,  0.000,  0.000,  0.000,  0.000,  2,  1.02000,  -122.0794,  'PARIS 2 ',  13.800,  11
2025,  1,  0.000,  0.000,  0.000,  0.000,  2,  1.01391,  -127.2995,  'WICHITA ',  161.00,  11
2027,  1,  0.000,  0.000,  0.000,  0.000,  2,  0.99689,  -128.1550,  'DEPORT 0',  161.00,  11
2028,  1,  0.000,  0.000,  0.000,  0.000,  2,  1.01647,  -129.4325,  'WICHITA ',  161.00,  11
2030,  1,  0.000,  0.000,  0.000,  0.000,  2,  0.98511,  -130.8446,  'BONHAM 0',  161.00,  11
2032,  1,  0.000,  0.000,  0.000,  0.000,  2,  1.00887,  -126.1660,  'ARTHUR C',  161.00,  11
2033,  1,  0.000,  0.000,  0.000,  0.000,  2,  0.97219,  -133.5160,  'LEONARD ',  161.00,  11
2034,  1,  0.000,  0.000,  0.000,  0.000,  2,  1.01734,  -132.5738,  'GORDONVI',  161.00,  11
2036,  1,  0.000,  0.000,  0.000,  0.000,  2,  1.01716,  -127.9833,  'WICHITA ',  161.00,  11
2037,  1,  0.000,  0.000,  0.000,  0.000,  2,  1.02750,  -133.6093,  'LINDSAY ',  161.00,  11
2038,  1,  0.000,  0.000,  0.000,  0.000,  2,  1.01246,  -128.8409,  'ECTOR 0 ',  161.00,  11
2039,  1,  0.000,  0.000,  0.000,  0.000,  2,  1.00051,  -133.3483,  'SUNSET 0',  161.00,  11
2040,  1,  0.000,  0.000,  0.000,  0.000,  2,  1.00652,  -126.7895,  'CLARKSVI',  161.00,  11
2043,  1,  0.000,  0.000,  0.000,  0.000,  2,  1.01737,  -132.8368,  'SADLER 0',  161.00,  11
2044,  1,  0.000,  0.000,  0.000,  0.000,  2,  1.02337,  -131.6590,  'WHITESBO',  161.00,  11
2045,  1,  0.000,  0.000,  0.000,  0.000,  2,  1.01627,  -128.1198,  'SHEPPARD',  161.00,  11
2046,  1,  0.000,  0.000,  0.000,  0.000,  2,  1.01763,  -132.2410,  'POTTSBOR',  161.00,  11
2047,  1,  0.000,  0.000,  0.000,  0.000,  2,  1.01859,  -128.6532,  'BELLS 0 ',  161.00,  11
2049,  1,  59.153,  -3.034,  0.000,  0.000,  2,  1.02649,  -131.9954,  'ELECTRA ',  161.00,  10
2050,  1,  0.000,  0.000,  0.000,  0.000,  2,  0.96906,  -132.4035,  'PATTONVI',  161.00,  11
2051,  1,  0.000,  0.000,  0.000,  0.000,  2,  1.01205,  -131.7999,  'HENRIETT',  161.00,  11
2053,  1,  0.000,  0.000,  0.000,  0.000,  2,  0.99927,  -130.5651,  'BOWIE 0 ',  161.00,  11
2054,  1,  0.000,  0.000,  0.000,  0.000,  2,  1.01948,  -126.1579,  'WICHITA ',  500.00,  11
2055,  1,  0.000,  0.000,  0.000,  0.000,  2,  1.01836,  -127.0499,  'WICHITA ',  161.00,  11
2056,  2,  0.000,  0.000,  0.000,  0.000,  2,  1.01948,  -126.1579,  'WICHITA ',  18.000,  11
2057,  3,  0.000,  0.000,  0.000,  0.000,  2,  0.99000,  -123.7791,  'WICHITA ',  18.000,  11
2060,  1,  0.000,  0.000,  0.000,  0.000,  2,  0.97586,  -130.8492,  'ROXTON 0',  161.00,  11
2063,  1,  0.000,  -41.563,  0.000,  0.000,  2,  1.01935,  -131.6830,  'DENISON ',  161.00,  11
2064,  1,  0.000,  0.000,  0.000,  0.000,  2,  0.99260,  -128.3692,  'SUMNER 0',  161.00,  11
2065,  1,  0.000,  -82.271,  0.000,  0.000,  2,  1.03000,  -133.6586,  'GAINESVI',  161.00,  11
2067,  1,  0.000,  0.000,  0.000,  0.000,  2,  1.01032,  -127.3768,  'WICHITA ',  161.00,  11
2068,  1,  0.000,  0.000,  0.000,  0.000,  2,  1.01021,  -125.9541,  'WINDTHOR',  161.00,  11
2069,  1,  0.000,  -95.213,  0.000,  0.000,  2,  1.03000,  -132.3427,  'HOWE 0  ',  161.00,  11
2070,  1,  0.000,  0.000,  0.000,  0.000,  2,  1.01138,  -125.4780,  'ARCHER 2',  161.00,  11
2071,  2,  0.000,  0.000,  0.000,  0.000,  2,  1.00000,  -124.3602,  'ARCHER 2',  18.000,  11
2072,  1,  0.000,  0.000,  0.000,  0.000,  2,  1.02642,  -130.6652,  'COLLINSV',  161.00,  11
2077,  1,  0.000,  0.000,  0.000,  0.000,  2,  1.02722,  -133.1743,  'MUENSTER',  161.00,  11
2078,  1,  -25.579,  10.846,  0.000,  0.000,  2,  1.01997,  -132.1637,  'MUENSTER',  13.800,  11
2080,  1,  0.000,  0.000,  0.000,  0.000,  2,  1.01290,  -132.6459,  'NOCONA 0',  161.00,  11
2081,  1,  0.000,  0.000,  0.000,  0.000,  2,  1.00097,  -130.5321,  'DODD CIT',  161.00,  11
2082,  1,  0.000,  0.000,  0.000,  0.000,  2,  1.01809,  -128.7955,  'WICHITA ',  161.00,  11
2083,  2,  0.000,  0.000,  0.000,  0.000,  2,  1.01809,  -128.7955,  'WICHITA ',  20.000,  11
2084,  2,  0.000,  0.000,  0.000,  0.000,  2,  1.01809,  -128.7955,  'WICHITA ',  20.000,  11
2085,  2,  0.000,  0.000,  0.000,  0.000,  2,  1.01809,  -128.7955,  'WICHITA ',  20.000,  11
2086,  1,  0.000,  0.000,  0.000,  0.000,  2,  1.00557,  -133.1047,  'MONTAGUE',  161.00,  11
2088,  1,  0.000,  0.000,  0.000,  0.000,  2,  1.01034,  -125.7327,  'ARCHER 1',  161.00,  11
2089,  1,  -15.369,  8.488,  0.000,  0.000,  2,  1.00003,  -124.6396,  'ARCHER 1',  24.000,  11
2090,  1,  0.000,  0.000,  0.000,  0.000,  2,  0.99208,  -129.0984,  'ANNONA 0',  161.00,  11
2092,  1,  0.000,  0.000,  0.000,  0.000,  2,  1.01802,  -130.1882,  'DENISON ',  161.00,  11
2101,  1,  0.000,  0.000,  0.000,  0.000,  2,  1.02218,  -126.2883,  'SHERMAN ',  500.00,  11
2102,  1,  0.000,  0.000,  0.000,  0.000,  2,  1.02359,  -127.9085,  'SHERMAN ',  161.00,  11
2103,  2,  0.000,  0.000,  0.000,  0.000,  2,  1.01863,  -125.7318,  'SHERMAN ',  20.000,  11
2104,  2,  0.000,  0.000,  0.000,  0.000,  2,  1.01748,  -125.5590,  'SHERMAN ',  20.000,  11
2105,  2,  0.000,  0.000,  0.000,  0.000,  2,  1.01483,  -125.1310,  'SHERMAN ',  20.000,  11
2106,  1,  0.000,  0.000,  0.000,  0.000,  2,  0.97772,  -133.1614,  'WHITEWRI',  161.00,  11
2107,  1,  0.000,  0.000,  0.000,  0.000,  2,  1.01983,  -128.6539,  'SHERMAN ',  161.00,  11
2109,  1,  0.000,  0.000,  0.000,  0.000,  2,  1.02204,  -130.3154,  'BURKBURN',  161.00,  11
2110,  1,  0.000,  -39.431,  0.000,  0.000,  2,  1.03000,  -133.4107,  'MUENSTER',  161.00,  11
2111,  1,  0.000,  0.000,  0.000,  0.000,  2,  1.01625,  -128.5059,  'ARCHER C',  161.00,  11
2112,  1,  0.000,  0.000,  0.000,  0.000,  2,  1.01495,  -130.1917,  'PETROLIA',  161.00,  11
2113,  1,  0.000,  0.000,  0.000,  0.000,  2,  1.02122,  -123.4195,  'PARIS 1 ',  500.00,  11
2114,  1,  0.000,  0.000,  0.000,  0.000,  2,  1.01764,  -124.6447,  'PARIS 1 ',  161.00,  11
2115,  2,  0.000,  0.000,  0.000,  0.000,  2,  1.01320,  -120.5793,  'PARIS 1 ',  13.800,  11
2116,  2,  0.000,  0.000,  0.000,  0.000,  2,  1.01720,  -121.9469,  'PARIS 1 ',  13.800,  11
2117,  2,  0.000,  0.000,  0.000,  0.000,  2,  1.01108,  -120.1286,  'PARIS 1 ',  13.800,  11
2118,  2,  0.000,  0.000,  0.000,  0.000,  2,  1.00999,  -119.7688,  'PARIS 1 ',  13.800,  11
2119,  2,  0.000,  0.000,  0.000,  0.000,  2,  1.01625,  -121.6252,  'PARIS 1 ',  13.800,  11
2120,  2,  0.000,  0.000,  0.000,  0.000,  2,  1.01063,  -119.9125,  'PARIS 1 ',  13.800,  11
2121,  1,  0.000,  0.000,  0.000,  0.000,  2,  1.00188,  -127.6156,  'BAGWELL ',  161.00,  11
2122,  1,  0.000,  0.000,  0.000,  0.000,  2,  0.99790,  -128.0481,  'TELEPHON',  161.00,  11
2123,  2,  8.258,  3.229,  0.000,  0.000,  2,  1.02806,  -125.1681,  'PANHANDL',  161.00,  10
2124,  1,  0.000,  0.000,  0.000,  0.000,  2,  0.96870,  -134.7751,  'VAN ALST',  161.00,  11
2125,  1,  0.000,  0.000,  0.000,  0.000,  2,  1.01127,  -131.0984,  'TIOGA 0 ',  161.00,  11
2126,  1,  0.000,  0.000,  0.000,  0.000,  2,  1.02195,  -133.6530,  'VALLEY V',  161.00,  11
2127,  1,  24.216,  193.992,  0.000,  0.000,  2,  1.04095,  -126.5757,  'MIAMI 0 ',  500.00,  10
2129,  1,  0.000,  0.000,  0.000,  0.000,  2,  0.98294,  -132.8698,  'TRENTON ',  161.00,  11
2133,  1,  0.000,  0.000,  0.000,  0.000,  2,  1.02440,  -133.1077,  'SAINT JO',  161.00,  11
3028,  2,  112.790,  -8.833,  0.000,  0.000,  3,  1.04000,  -127.0678,  'ABILENE ',  18.000,  27
3045,  2,  126.731,  -7.390,  0.000,  0.000,  3,  1.04000,  -116.3489,  'SILVER 4',  13.800,  27
3106,  3,  58.267,  -5.720,  0.000,  0.000,  3,  1.00000,  -123.0945,  'BUCHANAN',  13.200,  28
4026,  2,  292.490,  26.712,  0.000,  0.000,  4,  1.03000,  -121.9162,  'CHRISTIN',  13.800,  20
4030,  3,  288.694,  50.589,  0.000,  0.000,  4,  1.01000,  -109.1984,  'FANNIN 2',  13.800,  21
4058,  2,  48.574,  13.580,  0.000,  0.000,  4,  1.03000,  -127.7154,  'GREGORY ',  13.800,  21
4059,  2,  57.124,  14.619,  0.000,  0.000,  4,  1.03000,  -128.2441,  'GREGORY ',  13.800,  21
4060,  2,  39.623,  10.585,  0.000,  0.000,  4,  1.03000,  -126.2414,  'GREGORY ',  13.800,  21
4061,  2,  49.844,  14.131,  0.000,  0.000,  4,  1.03000,  -127.1234,  'GREGORY ',  13.800,  21
4062,  2,  46.686,  11.781,  0.000,  0.000,  4,  1.03000,  -126.1551,  'GREGORY ',  13.800,  21
4063,  2,  48.913,  14.579,  0.000,  0.000,  4,  1.03000,  -127.0438,  'GREGORY ',  13.800,  21
4082,  2,  120.604,  17.096,  0.000,  0.000,  4,  1.04000,  -133.1511,  'CORPUS C',  13.800,  21
4083,  2,  129.809,  17.637,  0.000,  0.000,  4,  1.04000,  -133.6009,  'CORPUS C',  13.800,  21
4084,  2,  226.823,  23.731,  0.000,  0.000,  4,  1.04000,  -135.9830,  'CORPUS C',  13.800,  21
4085,  2,  268.028,  30.622,  0.000,  0.000,  4,  1.04000,  -134.7265,  'CORPUS C',  13.800,  21
4105,  2,  210.916,  25.397,  0.000,  0.000,  4,  1.00513,  -138.8235,  'TAFT 2 1',  18.000,  21
4115,  2,  232.403,  -25.868,  0.000,  0.000,  4,  1.04000,  -143.9745,  'LAREDO 1',  13.800,  20
4116,  2,  220.842,  -26.582,  0.000,  0.000,  4,  1.04000,  -143.9256,  'LAREDO 1',  13.800,  20
4160,  2,  237.840,  58.118,  0.000,  0.000,  4,  1.03000,  -132.0159,  'CORPUS C',  13.800,  21
4161,  2,  100.501,  29.300,  0.000,  0.000,  4,  1.03000,  -128.7112,  'CORPUS C',  13.800,  21
4162,  2,  102.017,  27.359,  0.000,  0.000,  4,  1.03000,  -128.7939,  'CORPUS C',  13.800,  21
4181,  2,  427.014,  72.717,  0.000,  0.000,  4,  1.00049,  -130.4383,  'TAFT 1 0',  230.00,  21
4192,  2,  1901.136,  10.775,  0.000,  0.000,  4,  1.02000,  -145.9850,  'BROWNSVI',  230.00,  19
5003,  1,  0.000,  0.000,  0.000,  0.000,  5,  1.01978,  -131.6947,  'GARLAND ',  161.00,  16
5004,  1,  0.000,  0.000,  0.000,  0.000,  5,  0.89873,  -139.6823,  'KERENS 0',  161.00,  14
5006,  1,  0.000,  0.000,  0.000,  0.000,  5,  1.02694,  -131.2799,  'DALLAS 2',  161.00,  16
5007,  1,  0.000,  0.000,  0.000,  0.000,  5,  1.01903,  -130.5148,  'DENTON 4',  161.00,  17
5009,  1,  0.000,  0.000,  0.000,  0.000,  5,  1.02521,  -132.5365,  'DALLAS 2',  161.00,  16
5010,  1,  0.000,  0.000,  0.000,  0.000,  5,  1.02182,  -131.6038,  'PLANO 2 ',  161.00,  16
5011,  1,  89.911,  17.619,  0.000,  0.000,  5,  0.87583,  -137.3594,  'THORNTON',  161.00,  13
5012,  1,  0.000,  0.000,  0.000,  0.000,  5,  1.01637,  -131.0107,  'DENTON 5',  161.00,  17
5014,  1,  0.000,  0.000,  0.000,  0.000,  5,  1.00700,  -134.0420,  'DECATUR ',  161.00,  17
5015,  1,  0.000,  0.000,  0.000,  0.000,  5,  1.02402,  -127.3582,  'KELLER 2',  500.00,  17
5016,  1,  0.000,  0.000,  0.000,  0.000,  5,  1.02450,  -130.1823,  'KELLER 2',  161.00,  17
5017,  1,  0.000,  0.000,  0.000,  0.000,  5,  1.00365,  -133.1705,  'PONDER 0',  161.00,  17
5021,  1,  0.000,  0.000,  0.000,  0.000,  5,  1.02010,  -127.5125,  'ALEDO 1 ',  500.00,  17
5022,  1,  0.000,  0.000,  0.000,  0.000,  5,  1.01938,  -130.1505,  'ALEDO 1 ',  161.00,  17
5023,  2,  0.000,  0.000,  0.000,  0.000,  5,  1.02010,  -127.5125,  'ALEDO 1 ',  13.800,  17
5025,  1,  50.078,  12.010,  0.000,  0.000,  5,  1.01313,  -129.1043,  'CLEBURNE',  161.00,  18
5026,  1,  0.000,  0.000,  0.000,  0.000,  5,  1.01409,  -131.8679,  'FORT WOR',  161.00,  17
5027,  1,  0.000,  0.000,  0.000,  0.000,  5,  1.01436,  -133.2290,  'FORT WOR',  161.00,  17
5028,  1,  0.000,  0.000,  0.000,  0.000,  5,  1.02146,  -131.4605,  'FORT WOR',  161.00,  17
5030,  1,  108.978,  26.027,  0.000,  0.000,  5,  1.01138,  -133.8631,  'SPRINGTO',  161.00,  12
5031,  1,  0.000,  0.000,  0.000,  0.000,  5,  1.01075,  -131.4070,  'PRINCETO',  161.00,  16
5032,  1,  0.000,  0.000,  0.000,  0.000,  5,  1.01587,  -131.5370,  'DALLAS 2',  161.00,  16
5033,  1,  0.000,  0.000,  0.000,  0.000,  5,  1.02093,  -126.8899,  'DALLAS 1',  500.00,  16
5034,  1,  0.000,  0.000,  0.000,  0.000,  5,  1.01752,  -128.9387,  'DALLAS 1',  161.00,  16
5035,  2,  0.000,  0.000,  0.000,  0.000,  5,  1.02093,  -126.8899,  'DALLAS 1',  13.200,  16
5036,  2,  0.000,  0.000,  0.000,  0.000,  5,  1.02093,  -126.8899,  'DALLAS 1',  13.200,  16
5037,  2,  0.000,  0.000,  0.000,  0.000,  5,  1.02000,  -124.8252,  'DALLAS 1',  13.200,  16
5038,  2,  0.000,  0.000,  0.000,  0.000,  5,  1.02000,  -124.7591,  'DALLAS 1',  13.200,  16
5039,  2,  0.000,  0.000,  0.000,  0.000,  5,  1.02000,  -125.9522,  'DALLAS 1',  13.200,  16
5040,  2,  0.000,  0.000,  0.000,  0.000,  5,  1.02000,  -124.0996,  'DALLAS 1',  13.200,  16
5041,  2,  0.000,  0.000,  0.000,  0.000,  5,  1.02000,  -124.9503,  'DALLAS 1',  13.200,  16
5042,  2,  0.000,  0.000,  0.000,  0.000,  5,  1.02000,  -124.6063,  'DALLAS 1',  13.200,  16
5043,  1,  0.000,  0.000,  0.000,  0.000,  5,  1.00484,  -132.8127,  'ROYSE CI',  161.00,  16
5044,  1,  0.000,  0.000,  0.000,  0.000,  5,  1.01082,  -131.3650,  'BOYD 0  ',  161.00,  17
5047,  1,  0.000,  0.000,  0.000,  0.000,  5,  1.01652,  -124.9193,  'MANSFIEL',  500.00,  17
5048,  1,  0.000,  0.000,  0.000,  0.000,  5,  1.01560,  -128.5957,  'MANSFIEL',  161.00,  17
5049,  1,  0.000,  0.000,  0.000,  0.000,  5,  1.02230,  -125.6680,  'GREENVIL',  500.00,  16
5050,  1,  0.000,  0.000,  0.000,  0.000,  5,  1.00849,  -130.7063,  'GREENVIL',  161.00,  16
5051,  2,  0.000,  0.000,  0.000,  0.000,  5,  1.02230,  -125.6680,  'GREENVIL',  22.000,  16
5052,  1,  0.000,  0.000,  0.000,  0.000,  5,  1.02316,  -128.4816,  'GREENVIL',  115.00,  16
5053,  1,  0.000,  0.000,  0.000,  0.000,  5,  1.02171,  -130.7473,  'PLANO 4 ',  161.00,  16
5054,  1,  0.000,  0.000,  0.000,  0.000,  5,  0.84031,  -142.4964,  'GROESBEC',  161.00,  14
5057,  2,  29.186,  -1.033,  0.000,  0.000,  5,  1.01686,  -122.0936,  'GRAHAM 2',  13.800,  12
5058,  2,  26.386,  -0.302,  0.000,  0.000,  5,  1.01405,  -121.0241,  'GRAHAM 3',  13.800,  12
5059,  1,  0.000,  0.000,  0.000,  0.000,  5,  0.98469,  -132.4067,  'MABANK 2',  161.00,  14
5060,  1,  0.000,  0.000,  0.000,  0.000,  5,  1.00001,  -133.7295,  'MABANK 2',  115.00,  14
5061,  1,  0.000,  -39.753,  0.000,  0.000,  5,  1.02905,  -137.0650,  'MABANK 2',  115.00,  14
5062,  1,  0.000,  0.000,  0.000,  0.000,  5,  1.00564,  -140.1174,  'MABANK 2',  115.00,  14
5063,  1,  0.000,  0.000,  0.000,  0.000,  5,  1.02559,  -127.1473,  'ARLINGTO',  500.00,  17
5064,  1,  0.000,  0.000,  0.000,  0.000,  5,  1.02355,  -129.9735,  'ARLINGTO',  161.00,  17
5065,  2,  0.000,  0.000,  0.000,  0.000,  5,  1.02559,  -127.1473,  'ARLINGTO',  13.800,  17
5066,  2,  0.000,  0.000,  0.000,  0.000,  5,  1.02559,  -127.1473,  'ARLINGTO',  13.800,  17
5067,  2,  0.000,  0.000,  0.000,  0.000,  5,  1.03000,  -124.5915,  'ARLINGTO',  13.800,  17
5068,  2,  0.000,  0.000,  0.000,  0.000,  5,  1.03000,  -124.4643,  'ARLINGTO',  13.800,  17
5069,  2,  0.000,  0.000,  0.000,  0.000,  5,  1.03000,  -124.2935,  'ARLINGTO',  13.800,  17
5070,  1,  0.000,  0.000,  0.000,  0.000,  5,  1.01469,  -132.2480,  'DALLAS 4',  161.00,  17
5072,  1,  0.000,  0.000,  0.000,  0.000,  5,  1.02604,  -130.9031,  'DALLAS 1',  161.00,  16
5074,  1,  0.000,  0.000,  0.000,  0.000,  5,  1.01012,  -132.7230,  'PROSPER ',  161.00,  16
5076,  1,  0.000,  0.000,  0.000,  0.000,  5,  1.01046,  -134.5181,  'TERRELL ',  161.00,  16
5077,  1,  -0.001,  -65.308,  0.000,  0.000,  5,  1.03000,  -135.8831,  'TERRELL ',  115.00,  16
5078,  1,  0.000,  0.000,  0.000,  0.000,  5,  1.01865,  -130.3198,  'AUBREY 0',  161.00,  17
5082,  1,  0.000,  0.000,  0.000,  0.000,  5,  1.02363,  -132.2592,  'ARLINGTO',  161.00,  17
5083,  1,  0.000,  0.000,  0.000,  0.000,  5,  1.02652,  -127.5777,  'MCKINNEY',  500.00,  16
5084,  1,  0.000,  0.000,  0.000,  0.000,  5,  1.02275,  -129.9338,  'MCKINNEY',  161.00,  16
5085,  1,  0.000,  0.000,  0.000,  0.000,  5,  1.00656,  -132.4944,  'DALLAS 3',  161.00,  17
5086,  1,  0.000,  0.000,  0.000,  0.000,  5,  1.01819,  -131.8702,  'ARLINGTO',  161.00,  17
5087,  1,  0.000,  0.000,  0.000,  0.000,  5,  0.95770,  -134.4901,  'MILFORD ',  161.00,  14
5090,  1,  0.000,  -184.177,  0.000,  0.000,  5,  1.02588,  -132.2613,  'DALLAS 1',  161.00,  16
5091,  1,  0.000,  0.000,  0.000,  0.000,  5,  0.91390,  -138.3642,  'FROST 0 ',  161.00,  14
5092,  1,  0.000,  0.000,  0.000,  0.000,  5,  1.01462,  -131.3584,  'GRANDVIE',  161.00,  14
5093,  1,  0.000,  -226.752,  0.000,  0.000,  5,  1.02697,  -133.4413,  'HASLET 0',  161.00,  17
5094,  1,  0.000,  0.000,  0.000,  0.000,  5,  1.00559,  -127.8408,  'BARDWELL',  161.00,  14
5095,  1,  0.000,  0.000,  0.000,  0.000,  5,  1.02216,  -131.4881,  'LAKE DAL',  161.00,  17
5096,  1,  0.000,  0.000,  0.000,  0.000,  5,  1.02036,  -131.1016,  'PLANO 1 ',  161.00,  16
5097,  1,  0.000,  0.000,  0.000,  0.000,  5,  1.02131,  -131.0639,  'EULESS 2',  161.00,  17
...
 0 /End of Bus data, Begin Generator data
1048,  '1',  325.200,  55.690,  165.530,  -36.100,  1.00000,  0,  390.240,  0.00000,  0.10170,  0.00000,  0.00000,  1.00000,  1,  100.0,  325.200,  97.560
1049,  '1',  325.200,  78.671,  165.530,  -36.100,  1.00000,  0,  390.240,  0.00000,  0.13490,  0.00000,  0.00000,  1.00000,  1,  100.0,  325.200,  97.560
1053,  '1',  128.740,  -10.498,  91.010,  -19.850,  1.00000,  0,  214.560,  0.00000,  0.16870,  0.00000,  0.00000,  1.00000,  1,  100.0,  178.800,  53.640
1072,  '1',  141.900,  3.828,  97.800,  -21.330,  1.01000,  0,  230.560,  0.00000,  0.30820,  0.00000,  0.00000,  1.00000,  1,  100.0,  192.130,  57.640
1073,  '1',  138.330,  1.198,  97.800,  -21.330,  1.01000,  0,  230.560,  0.00000,  0.19480,  0.00000,  0.00000,  1.00000,  1,  100.0,  192.130,  57.640
1074,  '1',  138.330,  8.193,  97.800,  -21.330,  1.01000,  0,  230.560,  0.00000,  0.20960,  0.00000,  0.00000,  1.00000,  1,  100.0,  192.130,  57.640
1075,  '1',  138.330,  7.756,  97.800,  -21.330,  1.01000,  0,  230.560,  0.00000,  0.12370,  0.00000,  0.00000,  1.00000,  1,  100.0,  192.130,  57.640
1076,  '1',  138.330,  7.849,  97.800,  -21.330,  1.01000,  0,  230.560,  0.00000,  0.10660,  0.00000,  0.00000,  1.00000,  1,  100.0,  192.130,  57.640
1077,  '1',  138.330,  6.929,  97.800,  -21.330,  1.01000,  0,  230.560,  0.00000,  0.15380,  0.00000,  0.00000,  1.00000,  1,  100.0,  192.130,  57.640
1081,  '1',  286.500,  7.757,  145.830,  -31.800,  1.01000,  0,  343.800,  0.00000,  0.14960,  0.00000,  0.00000,  1.00000,  1,  100.0,  286.500,  85.950
2004,  '1',  117.540,  -13.965,  199.430,  -43.490,  1.02000,  0,  470.160,  0.00000,  0.10640,  0.00000,  0.00000,  1.00000,  1,  100.0,  391.800,  117.540
2005,  '1',  117.540,  -12.392,  199.430,  -43.490,  1.02000,  0,  470.160,  0.00000,  0.22750,  0.00000,  0.00000,  1.00000,  1,  100.0,  391.800,  117.540
2006,  '1',  117.540,  -7.011,  199.430,  -43.490,  1.02000,  0,  470.160,  0.00000,  0.20040,  0.00000,  0.00000,  1.00000,  1,  100.0,  391.800,  117.540
2019,  '1',  31.793,  36.141,  46.430,  -31.390,  1.04000,  0,  261.600,  0.00000,  1.00000,  0.00000,  0.00000,  1.00000,  1,  100.0,  218.000,  65.400
2023,  '1',  0.000,  15.439,  42.420,  -9.250,  1.02000,  0,  100.000,  0.00000,  0.29440,  0.00000,  0.00000,  1.00000,  0,  100.0,  83.330,  25.000
2024,  '1',  120.000,  -3.911,  84.830,  -18.500,  1.02000,  0,  200.000,  0.00000,  0.15080,  0.00000,  0.00000,  1.00000,  1,  100.0,  166.670,  50.000
2056,  '1',  0.000,  0.000,  2.800,  -0.730,  0.99000,  0,  7.200,  0.00000,  0.24920,  0.00000,  0.00000,  1.00000,  0,  100.0,  6.000,  1.800
2057,  '1',  312.944,  -220.258,  335.520,  -87.840,  0.99000,  0,  864.000,  0.00000,  0.17700,  0.00000,  0.00000,  1.00000,  1,  100.0,  720.000,  216.000
2071,  '1',  34.104,  -20.362,  31.950,  -21.600,  1.00000,  0,  180.000,  0.00000,  1.00000,  0.00000,  0.00000,  1.00000,  1,  100.0,  150.000,  45.000
2083,  '1',  0.000,  10.080,  10.180,  -2.220,  1.02000,  0,  24.000,  0.00000,  0.16410,  0.00000,  0.00000,  1.00000,  0,  100.0,  20.000,  6.000
2084,  '1',  0.000,  0.000,  10.180,  -2.220,  1.02000,  0,  24.000,  0.00000,  0.23120,  0.00000,  0.00000,  1.00000,  0,  100.0,  20.000,  6.000
2085,  '1',  0.000,  0.000,  20.360,  -4.440,  1.02000,  0,  48.000,  0.00000,  0.22690,  0.00000,  0.00000,  1.00000,  0,  100.0,  40.000,  12.000
2103,  '1',  80.320,  -29.720,  136.280,  -29.720,  1.00000,  0,  321.280,  0.00000,  0.33430,  0.00000,  0.00000,  1.00000,  1,  100.0,  267.730,  80.320
2104,  '1',  80.320,  -29.720,  136.280,  -29.720,  1.00000,  0,  321.280,  0.00000,  0.31470,  0.00000,  0.00000,  1.00000,  1,  100.0,  267.730,  80.320
2105,  '1',  80.320,  -29.720,  136.280,  -29.720,  1.00000,  0,  321.280,  0.00000,  0.14160,  0.00000,  0.00000,  1.00000,  1,  100.0,  267.730,  80.320
2115,  '1',  133.000,  -20.500,  94.020,  -20.500,  1.00000,  0,  221.660,  0.00000,  0.14250,  0.00000,  0.00000,  1.00000,  1,  100.0,  184.720,  55.410
2116,  '1',  133.000,  -20.500,  94.020,  -20.500,  1.00000,  0,  221.660,  0.00000,  0.18690,  0.00000,  0.00000,  1.00000,  1,  100.0,  184.720,  55.410
2117,  '1',  133.000,  -20.500,  94.020,  -20.500,  1.00000,  0,  221.660,  0.00000,  0.32540,  0.00000,  0.00000,  1.00000,  1,  100.0,  184.720,  55.410
2118,  '1',  133.000,  -20.500,  94.020,  -20.500,  1.00000,  0,  221.660,  0.00000,  0.10610,  0.00000,  0.00000,  1.00000,  1,  100.0,  184.720,  55.410
2119,  '1',  133.000,  -20.500,  94.020,  -20.500,  1.00000,  0,  221.660,  0.00000,  0.13600,  0.00000,  0.00000,  1.00000,  1,  100.0,  184.720,  55.410
2120,  '1',  133.000,  -20.500,  94.020,  -20.500,  1.01000,  0,  221.660,  0.00000,  0.20680,  0.00000,  0.00000,  1.00000,  1,  100.0,  184.720,  55.410
2123,  '1',  50.684,  -26.160,  38.700,  -26.160,  1.00000,  0,  218.040,  0.00000,  1.00000,  0.00000,  0.00000,  1.00000,  1,  100.0,  181.700,  54.510
3028,  '1',  45.472,  16.069,  42.600,  -28.800,  1.04000,  0,  240.000,  0.00000,  1.00000,  0.00000,  0.00000,  1.00000,  1,  100.0,  200.000,  60.000
3045,  '1',  259.260,  18.505,  227.520,  -49.620,  1.04000,  0,  536.400,  0.00000,  0.14470,  0.00000,  0.00000,  1.00000,  1,  100.0,  447.000,  134.100
3106,  '1',  36.923,  -10.703,  62.477,  -2.690,  1.00000,  0,  65.880,  0.00000,  0.29220,  0.00000,  0.00000,  1.00000,  1,  100.0,  162.800,  0.000
4026,  '1',  123.000,  86.535,  191.060,  -50.020,  1.03000,  0,  492.000,  0.00000,  0.32770,  0.00000,  0.00000,  1.00000,  1,  100.0,  410.000,  123.000
4030,  '1',  174.063,  284.008,  290.040,  -75.930,  1.01000,  0,  746.880,  0.00000,  0.27970,  0.00000,  0.00000,  1.00000,  1,  100.0,  622.400,  186.720
4058,  '1',  103.680,  34.055,  73.300,  -15.980,  1.03000,  0,  172.800,  0.00000,  0.13700,  0.00000,  0.00000,  1.00000,  1,  100.0,  144.000,  43.200
4059,  '1',  103.680,  37.936,  73.300,  -15.980,  1.03000,  0,  172.800,  0.00000,  0.15140,  0.00000,  0.00000,  1.00000,  1,  100.0,  144.000,  43.200
4060,  '1',  103.680,  24.894,  73.300,  -15.980,  1.03000,  0,  172.800,  0.00000,  0.13940,  0.00000,  0.00000,  1.00000,  1,  100.0,  144.000,  43.200
4061,  '1',  124.080,  35.014,  87.720,  -19.130,  1.03000,  0,  206.800,  0.00000,  0.21560,  0.00000,  0.00000,  1.00000,  1,  100.0,  172.330,  51.700
4062,  '1',  124.080,  27.482,  87.720,  -19.130,  1.03000,  0,  206.800,  0.00000,  0.25930,  0.00000,  0.00000,  1.00000,  1,  100.0,  172.330,  51.700
4063,  '1',  124.080,  36.113,  87.720,  -19.130,  1.03000,  0,  206.800,  0.00000,  0.14410,  0.00000,  0.00000,  1.00000,  1,  100.0,  172.330,  51.700
4082,  '1',  209.320,  40.288,  123.890,  -27.020,  1.04000,  0,  292.080,  0.00000,  0.13810,  0.00000,  0.00000,  1.00000,  1,  100.0,  243.400,  73.020
4083,  '1',  209.320,  42.477,  123.890,  -27.020,  1.04000,  0,  292.080,  0.00000,  0.15700,  0.00000,  0.00000,  1.00000,  1,  100.0,  243.400,  73.020
4084,  '1',  209.320,  71.576,  123.890,  -27.020,  1.04000,  0,  292.080,  0.00000,  0.19110,  0.00000,  0.00000,  1.00000,  1,  100.0,  243.400,  73.020
4085,  '1',  352.000,  85.001,  179.170,  -39.070,  1.04000,  0,  422.400,  0.00000,  0.31920,  0.00000,  0.00000,  1.00000,  1,  100.0,  352.000,  105.600
4105,  '1',  40.925,  38.340,  38.340,  -25.920,  1.01000,  0,  216.000,  0.00000,  1.00000,  0.00000,  0.00000,  1.00000,  1,  100.0,  180.000,  54.000
4115,  '1',  39.540,  40.266,  67.090,  -14.630,  1.04000,  0,  158.160,  0.00000,  0.11310,  0.00000,  0.00000,  1.00000,  1,  100.0,  131.800,  39.540
4116,  '1',  39.540,  37.883,  67.090,  -14.630,  1.04000,  0,  158.160,  0.00000,  0.15150,  0.00000,  0.00000,  1.00000,  1,  100.0,  131.800,  39.540
4160,  '1',  170.080,  91.791,  100.660,  -21.950,  1.03000,  0,  237.320,  0.00000,  0.18820,  0.00000,  0.00000,  1.00000,  1,  100.0,  197.770,  59.330
4161,  '1',  170.080,  43.350,  100.660,  -21.950,  1.03000,  0,  237.320,  0.00000,  0.12390,  0.00000,  0.00000,  1.00000,  1,  100.0,  197.770,  59.330
4162,  '1',  170.080,  40.077,  100.660,  -21.950,  1.03000,  0,  237.320,  0.00000,  0.17220,  0.00000,  0.00000,  1.00000,  1,  100.0,  197.770,  59.330
4181,  '1',  45.493,  42.620,  42.620,  -28.810,  1.04000,  0,  240.120,  0.00000,  1.00000,  0.00000,  0.00000,  1.00000,  1,  100.0,  200.100,  60.030
4192,  '1',  1197.930,  144.435,  688.320,  -150.120,  1.02000,  0,  1622.76,  0.00000,  0.14340,  0.00000,  0.00000,  1.00000,  1,  100.0,  1352.31,  405.690
5023,  '1',  0.000,  0.000,  2.440,  -0.530,  1.04000,  0,  5.760,  0.00000,  0.15290,  0.00000,  0.00000,  1.00000,  0,  100.0,  4.800,  1.440
5035,  '1',  0.000,  0.000,  2.140,  -0.470,  1.02000,  0,  5.040,  0.00000,  0.14180,  0.00000,  0.00000,  1.00000,  0,  100.0,  4.200,  1.260
5036,  '1',  0.000,  3.260,  3.260,  -0.710,  1.02000,  0,  7.680,  0.00000,  0.14370,  0.00000,  0.00000,  1.00000,  0,  100.0,  6.400,  1.920
5037,  '1',  308.470,  -6.013,  157.010,  -34.240,  1.02000,  0,  370.160,  0.00000,  0.29910,  0.00000,  0.00000,  1.00000,  1,  100.0,  308.470,  92.540
5038,  '1',  308.470,  -4.984,  157.010,  -34.240,  1.02000,  0,  370.160,  0.00000,  0.12330,  0.00000,  0.00000,  1.00000,  1,  100.0,  308.470,  92.540
5039,  '1',  308.470,  -19.056,  157.010,  -34.240,  1.02000,  0,  370.160,  0.00000,  0.21470,  0.00000,  0.00000,  1.00000,  1,  100.0,  308.470,  92.540
5040,  '1',  308.470,  -4.055,  157.010,  -34.240,  1.02000,  0,  370.160,  0.00000,  0.19240,  0.00000,  0.00000,  1.00000,  1,  100.0,  308.470,  92.540
5041,  '1',  308.470,  -8.719,  157.010,  -34.240,  1.02000,  0,  370.160,  0.00000,  0.11590,  0.00000,  0.00000,  1.00000,  1,  100.0,  308.470,  92.540
5042,  '1',  308.470,  -3.855,  157.010,  -34.240,  1.02000,  0,  370.160,  0.00000,  0.19130,  0.00000,  0.00000,  1.00000,  1,  100.0,  308.470,  92.540
5051,  '1',  0.000,  43.110,  43.110,  -9.400,  1.02000,  0,  101.640,  0.00000,  0.12480,  0.00000,  0.00000,  1.00000,  0,  100.0,  84.700,  25.410
5057,  '1',  317.350,  -35.230,  161.530,  -35.230,  1.00000,  0,  380.820,  0.00000,  0.19130,  0.00000,  0.00000,  1.00000,  1,  100.0,  317.350,  95.200
5058,  '1',  317.350,  -35.230,  161.530,  -35.230,  1.00000,  0,  380.820,  0.00000,  0.29820,  0.00000,  0.00000,  1.00000,  1,  100.0,  317.350,  95.200
5065,  '1',  0.000,  5.400,  5.400,  -1.180,  1.03000,  0,  12.720,  0.00000,  0.13710,  0.00000,  0.00000,  1.00000,  0,  100.0,  10.600,  3.180
5066,  '1',  0.000,  0.920,  0.920,  -0.200,  1.03000,  0,  2.160,  0.00000,  0.13100,  0.00000,  0.00000,  1.00000,  0,  100.0,  1.800,  0.540
5067,  '1',  438.270,  47.509,  223.080,  -48.650,  1.03000,  0,  525.920,  0.00000,  0.32610,  0.00000,  0.00000,  1.00000,  1,  100.0,  438.270,  131.480
5068,  '1',  438.270,  43.861,  223.080,  -48.650,  1.03000,  0,  525.920,  0.00000,  0.11690,  0.00000,  0.00000,  1.00000,  1,  100.0,  438.270,  131.480
5069,  '1',  438.270,  41.040,  223.080,  -48.650,  1.03000,  0,  525.920,  0.00000,  0.10560,  0.00000,  0.00000,  1.00000,  1,  100.0,  438.270,  131.480
5106,  '1',  0.000,  0.000,  5.030,  -1.320,  1.04000,  0,  12.960,  0.00000,  0.31910,  0.00000,  0.00000,  1.00000,  0,  100.0,  10.800,  3.240
5107,  '1',  0.000,  0.000,  2.660,  -0.700,  1.04000,  0,  6.840,  0.00000,  0.27550,  0.00000,  0.00000,  1.00000,  0,  100.0,  5.700,  1.710
5166,  '1',  91.080,  47.247,  64.390,  -14.040,  1.04000,  0,  151.800,  0.00000,  0.13910,  0.00000,  0.00000,  1.00000,  1,  100.0,  126.500,  37.950
5167,  '1',  0.000,  0.810,  0.810,  -0.180,  1.04000,  0,  1.920,  0.00000,  0.10670,  0.00000,  0.00000,  1.00000,  0,  100.0,  1.600,  0.480
5198,  '1',  34.104,  -21.600,  31.950,  -21.600,  1.00000,  0,  180.000,  0.00000,  1.00000,  0.00000,  0.00000,  1.00000,  1,  100.0,  150.000,  45.000
5206,  '1',  248.670,  -27.600,  126.570,  -27.600,  1.01000,  0,  298.400,  0.00000,  0.11980,  0.00000,  0.00000,  1.00000,  1,  100.0,  248.670,  74.600
5207,  '1',  248.670,  -27.600,  126.570,  -27.600,  1.01000,  0,  298.400,  0.00000,  0.18090,  0.00000,  0.00000,  1.00000,  1,  100.0,  248.670,  74.600
5208,  '1',  248.670,  -27.600,  126.570,  -27.600,  1.01000,  0,  298.400,  0.00000,  0.10560,  0.00000,  0.00000,  1.00000,  1,  100.0,  248.670,  74.600
5238,  '1',  51.156,  -32.400,  47.930,  -32.400,  1.00000,  0,  270.000,  0.00000,  1.00000,  0.00000,  0.00000,  1.00000,  1,  100.0,  225.000,  67.500
5243,  '1',  34.104,  -21.600,  31.950,  -21.600,  1.00000,  0,  180.000,  0.00000,  1.00000,  0.00000,  0.00000,  1.00000,  1,  100.0,  150.000,  45.000
5262,  '1',  1215.000,  -54.352,  447.120,  -99.630,  1.01000,  0,  1458.00,  0.00000,  0.26310,  0.00000,  0.00000,  1.00000,  1,  100.0,  1215.00,  364.500
5263,  '1',  1215.000,  -96.770,  447.120,  -99.630,  1.01000,  0,  1458.00,  0.00000,  0.16260,  0.00000,  0.00000,  1.00000,  1,  100.0,  1215.00,  364.500
5281,  '1',  192.770,  -29.720,  136.280,  -29.720,  1.00000,  0,  321.280,  0.00000,  0.10660,  0.00000,  0.00000,  1.00000,  1,  100.0,  267.730,  80.320
5282,  '1',  192.770,  -29.720,  136.280,  -29.720,  1.00000,  0,  321.280,  0.00000,  0.23940,  0.00000,  0.00000,  1.00000,  1,  100.0,  267.730,  80.320
5283,  '1',  192.760,  -29.720,  136.280,  -29.720,  1.00000,  0,  321.280,  0.00000,  0.10650,  0.00000,  0.00000,  1.00000,  1,  100.0,  267.730,  80.320
5297,  '1',  0.000,  0.000,  1.630,  -0.360,  1.04000,  0,  3.840,  0.00000,  0.19100,  0.00000,  0.00000,  1.00000,  0,  100.0,  3.200,  0.960
5298,  '1',  66.700,  58.530,  58.530,  -12.760,  1.04000,  0,  138.000,  0.00000,  0.13260,  0.00000,  0.00000,  1.00000,  1,  100.0,  115.000,  34.500
5299,  '1',  66.700,  57.924,  58.530,  -12.760,  1.04000,  0,  138.000,  0.00000,  0.32280,  0.00000,  0.00000,  1.00000,  1,  100.0,  115.000,  34.500
5300,  '1',  66.700,  58.530,  58.530,  -12.760,  1.04000,  0,  138.000,  0.00000,  0.21910,  0.00000,  0.00000,  1.00000,  1,  100.0,  115.000,  34.500
5301,  '1',  0.000,  42.090,  42.090,  -9.180,  1.04000,  0,  99.240,  0.00000,  0.19640,  0.00000,  0.00000,  1.00000,  0,  100.0,  82.700,  24.810
5302,  '1',  398.830,  79.991,  236.050,  -51.480,  1.04000,  0,  556.500,  0.00000,  0.13300,  0.00000,  0.00000,  1.00000,  1,  100.0,  463.750,  139.130
5303,  '1',  398.830,  103.422,  236.050,  -51.480,  1.04000,  0,  556.500,  0.00000,  0.17920,  0.00000,  0.00000,  1.00000,  1,  100.0,  463.750,  139.130
5319,  '1',  189.220,  -21.819,  133.770,  -29.170,  1.01000,  0,  315.360,  0.00000,  0.25070,  0.00000,  0.00000,  1.00000,  1,  100.0,  262.800,  78.840
5320,  '1',  189.220,  -21.061,  133.770,  -29.170,  1.01000,  0,  315.360,  0.00000,  0.28140,  0.00000,  0.00000,  1.00000,  1,  100.0,  262.800,  78.840
5321,  '1',  189.220,  -23.312,  133.770,  -29.170,  1.01000,  0,  315.360,  0.00000,  0.12810,  0.00000,  0.00000,  1.00000,  1,  100.0,  262.800,  78.840
5324,  '1',  284.070,  71.003,  144.590,  -31.530,  1.04000,  0,  340.880,  0.00000,  0.21670,  0.00000,  0.00000,  1.00000,  1,  100.0,  284.070,  85.220
5325,  '1',  284.070,  73.061,  144.590,  -31.530,  1.04000,  0,  340.880,  0.00000,  0.15030,  0.00000,  0.00000,  1.00000,  1,  100.0,  284.070,  85.220
5326,  '1',  284.070,  144.590,  144.590,  -31.530,  1.04000,  0,  340.880,  0.00000,  0.18810,  0.00000,  0.00000,  1.00000,  1,  100.0,  284.070,  85.220
5360,  '1',  462.992,  -26.386,  469.730,  -122.980,  1.01000,  0,  1209.60,  0.00000,  0.25510,  0.00000,  0.00000,  1.00000,  1,  100.0,  1008.00,  302.400
5364,  '1',  213.330,  -23.680,  108.590,  -23.680,  1.00000,  0,  256.000,  0.00000,  0.13030,  0.00000,  0.00000,  1.00000,  1,  100.0,  213.330,  64.000
5365,  '1',  213.330,  -23.680,  108.590,  -23.680,  1.00000,  0,  256.000,  0.00000,  0.11650,  0.00000,  0.00000,  1.00000,  1,  100.0,  213.330,  64.000
5366,  '1',  213.330,  -23.680,  108.590,  -23.680,  1.00000,  0,  256.000,  0.00000,  0.15490,  0.00000,  0.00000,  1.00000,  1,  100.0,  213.330,  64.000
5367,  '1',  213.330,  -23.680,  108.590,  -23.680,  1.00000,  0,  256.000,  0.00000,  0.10020,  0.00000,  0.00000,  1.00000,  1,  100.0,  213.330,  64.000
5368,  '1',  213.330,  -23.680,  108.590,  -23.680,  1.00000,  0,  256.000,  0.00000,  0.36180,  0.00000,  0.00000,  1.00000,  1,  100.0,  213.330,  64.000
5369,  '1',  213.330,  -23.680,  108.590,  -23.680,  1.00000,  0,  256.000,  0.00000,  0.24440,  0.00000,  0.00000,  1.00000,  1,  100.0,  213.330,  64.000
5382,  '1',  209.000,  106.380,  106.380,  -23.200,  1.04000,  0,  250.800,  0.00000,  0.24770,  0.00000,  0.00000,  1.00000,  1,  100.0,  209.000,  62.700
5383,  '1',  209.000,  106.380,  106.380,  -23.200,  1.04000,  0,  250.800,  0.00000,  0.39820,  0.00000,  0.00000,  1.00000,  1,  100.0,  209.000,  62.700
5399,  '1',  37.651,  28.154,  35.270,  -23.850,  1.04000,  0,  198.720,  0.00000,  1.00000,  0.00000,  0.00000,  1.00000,  1,  100.0,  165.600,  49.680
5415,  '1',  87.840,  -13.540,  62.100,  -13.540,  1.00000,  0,  146.400,  0.00000,  0.14030,  0.00000,  0.00000,  1.00000,  1,  100.0,  122.000,  36.600
5416,  '1',  87.840,  -13.540,  62.100,  -13.540,  1.00000,  0,  146.400,  0.00000,  0.26480,  0.00000,  0.00000,  1.00000,  1,  100.0,  122.000,  36.600
5417,  '1',  87.840,  -13.540,  62.100,  -13.540,  1.00000,  0,  146.400,  0.00000,  0.16960,  0.00000,  0.00000,  1.00000,  1,  100.0,  122.000,  36.600
5418,  '1',  85.540,  -13.190,  60.470,  -13.190,  1.00000,  0,  142.560,  0.00000,  0.34000,  0.00000,  0.00000,  1.00000,  1,  100.0,  118.800,  35.640
5419,  '1',  85.540,  -13.190,  60.470,  -13.190,  1.00000,  0,  142.560,  0.00000,  0.16420,  0.00000,  0.00000,  1.00000,  1,  100.0,  118.800,  35.640
5423,  '1',  0.000,  -1.380,  6.310,  -1.380,  1.00000,  0,  14.880,  0.00000,  0.12320,  0.00000,  0.00000,  1.00000,  0,  100.0,  12.400,  3.720
5424,  '1',  0.000,  0.000,  1.630,  -0.360,  1.00000,  0,  3.840,  0.00000,  0.18820,  0.00000,  0.00000,  1.00000,  0,  100.0,  3.200,  0.960
5444,  '1',  1412.380,  -223.840,  1026.440,  -223.840,  1.01000,  0,  2419.92,  0.00000,  0.34260,  0.00000,  0.00000,  1.00000,  1,  100.0,  2016.60,  604.980
6006,  '1',  183.180,  39.036,  108.420,  -23.640,  1.04000,  0,  255.600,  0.00000,  0.18770,  0.00000,  0.00000,  1.00000,  1,  100.0,  213.000,  63.900
6007,  '1',  426.000,  63.337,  216.830,  -47.290,  1.04000,  0,  511.200,  0.00000,  0.13420,  0.00000,  0.00000,  1.00000,  1,  100.0,  426.000,  127.800
6008,  '1',  170.560,  34.618,  100.950,  -22.010,  1.04000,  0,  238.000,  0.00000,  0.20160,  0.00000,  0.00000,  1.00000,  1,  100.0,  198.330,  59.500
6009,  '1',  170.560,  21.796,  100.950,  -22.010,  1.04000,  0,  238.000,  0.00000,  0.18430,  0.00000,  0.00000,  1.00000,  1,  100.0,  198.330,  59.500
6010,  '1',  170.560,  28.790,  100.950,  -22.010,  1.04000,  0,  238.000,  0.00000,  0.15620,  0.00000,  0.00000,  1.00000,  1,  100.0,  198.330,  59.500
6042,  '1',  38.988,  20.801,  122.908,  -5.290,  1.04000,  0,  129.600,  0.00000,  0.18770,  0.00000,  0.00000,  1.00000,  1,  100.0,  320.200,  0.000
6069,  '1',  130.590,  23.667,  92.320,  -20.130,  1.03000,  0,  217.640,  0.00000,  0.22480,  0.00000,  0.00000,  1.00000,  1,  100.0,  181.370,  54.410
6070,  '1',  130.590,  10.802,  92.320,  -20.130,  1.03000,  0,  217.640,  0.00000,  0.24660,  0.00000,  0.00000,  1.00000,  1,  100.0,  181.370,  54.410
6071,  '1',  130.590,  30.733,  92.320,  -20.130,  1.03000,  0,  217.640,  0.00000,  0.15280,  0.00000,  0.00000,  1.00000,  1,  100.0,  181.370,  54.410
6072,  '1',  130.590,  13.183,  92.320,  -20.130,  1.03000,  0,  217.640,  0.00000,  0.19250,  0.00000,  0.00000,  1.00000,  1,  100.0,  181.370,  54.410
6073,  '1',  130.590,  18.117,  92.320,  -20.130,  1.03000,  0,  217.640,  0.00000,  0.14260,  0.00000,  0.00000,  1.00000,  1,  100.0,  181.370,  54.410
6074,  '1',  130.590,  17.437,  92.320,  -20.130,  1.03000,  0,  217.640,  0.00000,  0.11150,  0.00000,  0.00000,  1.00000,  1,  100.0,  181.370,  54.410
6078,  '1',  169.000,  8.276,  262.510,  -68.730,  1.00000,  0,  676.000,  0.00000,  0.28900,  0.00000,  0.00000,  1.00000,  1,  100.0,  563.330,  169.000
6079,  '1',  169.000,  17.155,  262.510,  -68.730,  1.00000,  0,  676.000,  0.00000,  0.25330,  0.00000,  0.00000,  1.00000,  1,  100.0,  563.330,  169.000
6080,  '1',  169.000,  13.288,  262.510,  -68.730,  1.00000,  0,  676.000,  0.00000,  0.32510,  0.00000,  0.00000,  1.00000,  1,  100.0,  563.330,  169.000
6106,  '1',  70.180,  61.590,  61.590,  -13.430,  1.04000,  0,  145.200,  0.00000,  0.12010,  0.00000,  0.00000,  1.00000,  1,  100.0,  121.000,  36.300
6110,  '1',  177.180,  85.606,  275.220,  -72.050,  1.04000,  0,  708.720,  0.00000,  0.16800,  0.00000,  0.00000,  1.00000,  1,  100.0,  590.600,  177.180
6111,  '1',  198.450,  86.660,  308.260,  -80.700,  1.04000,  0,  793.800,  0.00000,  0.21900,  0.00000,  0.00000,  1.00000,  1,  100.0,  661.500,  198.450
6145,  '1',  446.000,  34.038,  227.010,  -49.510,  1.03000,  0,  535.200,  0.00000,  0.14770,  0.00000,  0.00000,  1.00000,  1,  100.0,  446.000,  133.800
6146,  '1',  446.000,  34.855,  227.010,  -49.510,  1.03000,  0,  535.200,  0.00000,  0.11950,  0.00000,  0.00000,  1.00000,  1,  100.0,  446.000,  133.800
6147,  '1',  254.180,  29.839,  474.390,  -103.450,  1.03000,  0,  1118.40,  0.00000,  0.10440,  0.00000,  0.00000,  1.00000,  1,  100.0,  932.000,  279.600
6148,  '1',  418.800,  48.477,  367.500,  -80.140,  1.03000,  0,  866.400,  0.00000,  0.23830,  0.00000,  0.00000,  1.00000,  1,  100.0,  722.000,  216.600
6149,  '1',  418.760,  90.758,  367.500,  -80.140,  1.03000,  0,  866.400,  0.00000,  0.12770,  0.00000,  0.00000,  1.00000,  1,  100.0,  722.000,  216.600
6164,  '1',  202.140,  44.545,  119.640,  -26.090,  1.03000,  0,  282.060,  0.00000,  0.30070,  0.00000,  0.00000,  1.00000,  1,  100.0,  235.050,  70.520
6165,  '1',  202.140,  39.340,  119.640,  -26.090,  1.03000,  0,  282.060,  0.00000,  0.18390,  0.00000,  0.00000,  1.00000,  1,  100.0,  235.050,  70.520
6166,  '1',  202.140,  92.510,  119.640,  -26.090,  1.03000,  0,  282.060,  0.00000,  0.25100,  0.00000,  0.00000,  1.00000,  1,  100.0,  235.050,  70.520
6167,  '1',  202.140,  50.284,  119.640,  -26.090,  1.03000,  0,  282.060,  0.00000,  0.13970,  0.00000,  0.00000,  1.00000,  1,  100.0,  235.050,  70.520
6214,  '1',  67.249,  12.592,  212.059,  -9.130,  1.04000,  0,  223.600,  0.00000,  0.21900,  0.00000,  0.00000,  1.00000,  1,  100.0,  552.300,  0.000
6215,  '1',  67.249,  50.026,  212.059,  -9.130,  1.04000,  0,  223.600,  0.00000,  0.20110,  0.00000,  0.00000,  1.00000,  1,  100.0,  552.300,  0.000
6216,  '1',  67.249,  22.063,  212.059,  -9.130,  1.04000,  0,  223.600,  0.00000,  0.37760,  0.00000,  0.00000,  1.00000,  1,  100.0,  552.300,  0.000
6243,  '1',  157.380,  73.923,  93.150,  -20.310,  1.04000,  0,  219.600,  0.00000,  0.28800,  0.00000,  0.00000,  1.00000,  1,  100.0,  183.000,  54.900
6244,  '1',  298.000,  89.406,  151.680,  -33.080,  1.04000,  0,  357.600,  0.00000,  0.12500,  0.00000,  0.00000,  1.00000,  1,  100.0,  298.000,  89.400
6245,  '1',  298.000,  104.171,  151.680,  -33.080,  1.04000,  0,  357.600,  0.00000,  0.24960,  0.00000,  0.00000,  1.00000,  1,  100.0,  298.000,  89.400
6246,  '1',  298.000,  151.680,  151.680,  -33.080,  1.04000,  0,  357.600,  0.00000,  0.16990,  0.00000,  0.00000,  1.00000,  1,  100.0,  298.000,  89.400
6247,  '1',  157.660,  93.320,  93.320,  -20.350,  1.04000,  0,  220.000,  0.00000,  0.11730,  0.00000,  0.00000,  1.00000,  1,  100.0,  183.330,  55.000
6248,  '1',  157.660,  81.841,  93.320,  -20.350,  1.04000,  0,  220.000,  0.00000,  0.27550,  0.00000,  0.00000,  1.00000,  1,  100.0,  183.330,  55.000
6249,  '1',  157.660,  56.327,  93.320,  -20.350,  1.04000,  0,  220.000,  0.00000,  0.17480,  0.00000,  0.00000,  1.00000,  1,  100.0,  183.330,  55.000
6257,  '1',  166.840,  -21.530,  98.750,  -21.530,  1.02000,  0,  232.800,  0.00000,  0.15520,  0.00000,  0.00000,  1.00000,  1,  100.0,  194.000,  58.200
6258,  '1',  166.840,  -21.530,  98.750,  -21.530,  1.02000,  0,  232.800,  0.00000,  0.26310,  0.00000,  0.00000,  1.00000,  1,  100.0,  194.000,  58.200
6260,  '1',  257.000,  -28.530,  130.810,  -28.530,  1.02000,  0,  308.400,  0.00000,  0.11970,  0.00000,  0.00000,  1.00000,  1,  100.0,  257.000,  77.100
6295,  '1',  177.360,  -22.890,  104.970,  -22.890,  1.02000,  0,  247.480,  0.00000,  0.21970,  0.00000,  0.00000,  1.00000,  1,  100.0,  206.230,  61.870
6296,  '1',  177.360,  -22.890,  104.970,  -22.890,  1.02000,  0,  247.480,  0.00000,  0.25670,  0.00000,  0.00000,  1.00000,  1,  100.0,  206.230,  61.870
6297,  '1',  177.360,  -22.890,  104.970,  -22.890,  1.02000,  0,  247.480,  0.00000,  0.14170,  0.00000,  0.00000,  1.00000,  1,  100.0,  206.230,  61.900
6302,  '1',  247.250,  -27.440,  125.850,  -27.440,  1.00000,  0,  296.700,  0.00000,  0.25960,  0.00000,  0.00000,  1.00000,  1,  100.0,  247.250,  74.180
6303,  '1',  247.250,  -27.440,  125.850,  -27.440,  1.00000,  0,  296.700,  0.00000,  0.27270,  0.00000,  0.00000,  1.00000,  1,  100.0,  247.250,  74.180
6304,  '1',  247.250,  -27.440,  125.850,  -27.440,  1.00000,  0,  296.700,  0.00000,  0.11710,  0.00000,  0.00000,  1.00000,  1,  100.0,  247.250,  74.180
6305,  '1',  247.250,  -27.440,  125.850,  -27.440,  1.00000,  0,  296.700,  0.00000,  0.12770,  0.00000,  0.00000,  1.00000,  1,  100.0,  247.250,  74.180
6349,  '1',  726.000,  369.540,  369.540,  -80.580,  1.04000,  0,  871.200,  0.00000,  0.16290,  0.00000,  0.00000,  1.00000,  1,  100.0,  726.000,  217.800
7005,  '1',  140.180,  33.395,  82.970,  -18.090,  1.04000,  0,  195.600,  0.00000,  0.13000,  0.00000,  0.00000,  1.00000,  1,  100.0,  163.000,  48.900
7006,  '1',  140.180,  58.925,  82.970,  -18.090,  1.04000,  0,  195.600,  0.00000,  0.19150,  0.00000,  0.00000,  1.00000,  1,  100.0,  163.000,  48.900
7007,  '1',  140.180,  38.746,  82.970,  -18.090,  1.04000,  0,  195.600,  0.00000,  0.34300,  0.00000,  0.00000,  1.00000,  1,  100.0,  163.000,  48.900
7008,  '1',  140.180,  36.353,  82.970,  -18.090,  1.04000,  0,  195.600,  0.00000,  0.21570,  0.00000,  0.00000,  1.00000,  1,  100.0,  163.000,  48.900
7009,  '1',  140.180,  32.875,  82.970,  -18.090,  1.04000,  0,  195.600,  0.00000,  0.13060,  0.00000,  0.00000,  1.00000,  1,  100.0,  163.000,  48.900
7045,  '1',  135.680,  95.920,  95.920,  -20.920,  1.03000,  0,  226.140,  0.00000,  0.12400,  0.00000,  0.00000,  1.00000,  1,  100.0,  188.450,  56.530
7046,  '1',  135.680,  95.920,  95.920,  -20.920,  1.03000,  0,  226.140,  0.00000,  0.10650,  0.00000,  0.00000,  1.00000,  1,  100.0,  188.450,  56.530
7061,  '1',  66.640,  58.480,  58.480,  -12.750,  1.00000,  0,  137.880,  0.00000,  0.12410,  0.00000,  0.00000,  1.00000,  1,  100.0,  114.900,  34.470
7062,  '1',  66.640,  58.480,  58.480,  -12.750,  1.00000,  0,  137.880,  0.00000,  0.19500,  0.00000,  0.00000,  1.00000,  1,  100.0,  114.900,  34.470
7063,  '1',  66.640,  58.480,  58.480,  -12.750,  1.00000,  0,  137.880,  0.00000,  0.15790,  0.00000,  0.00000,  1.00000,  1,  100.0,  114.900,  34.470
7064,  '1',  66.640,  58.480,  58.480,  -12.750,  1.00000,  0,  137.880,  0.00000,  0.22800,  0.00000,  0.00000,  1.00000,  1,  100.0,  114.900,  34.470
7065,  '1',  66.640,  58.480,  58.480,  -12.750,  1.00000,  0,  137.880,  0.00000,  0.22800,  0.00000,  0.00000,  1.00000,  1,  100.0,  114.900,  34.470
7066,  '1',  66.640,  58.480,  58.480,  -12.750,  1.00000,  0,  137.880,  0.00000,  0.34800,  0.00000,  0.00000,  1.00000,  1,  100.0,  114.900,  34.470
7079,  '1',  228.650,  29.174,  116.380,  -25.380,  1.04000,  0,  274.380,  0.00000,  0.13630,  0.00000,  0.00000,  1.00000,  1,  100.0,  228.650,  68.590
7080,  '1',  228.650,  23.410,  116.380,  -25.380,  1.04000,  0,  274.380,  0.00000,  0.17160,  0.00000,  0.00000,  1.00000,  1,  100.0,  228.650,  68.590
7081,  '1',  228.650,  24.037,  116.380,  -25.380,  1.04000,  0,  274.380,  0.00000,  0.24350,  0.00000,  0.00000,  1.00000,  1,  100.0,  228.650,  68.590
7082,  '1',  228.650,  28.102,  116.380,  -25.380,  1.04000,  0,  274.380,  0.00000,  0.26430,  0.00000,  0.00000,  1.00000,  1,  100.0,  228.650,  68.590
7098,  '1',  2807.027,  2922.235,  498.380,  -111.050,  1.00000,  0,  3600.00,  0.00000,  0.28190,  0.00000,  0.00000,  1.00000,  1,  100.0,  1354.30,  406.290
7099,  '1',  1354.300,  498.380,  498.380,  -111.050,  1.00000,  0,  1625.16,  0.00000,  0.27430,  0.00000,  0.00000,  1.00000,  1,  100.0,  1354.30,  406.290
7107,  '1',  129.000,  72.285,  76.350,  -16.650,  1.04000,  0,  180.000,  0.00000,  0.29250,  0.00000,  0.00000,  1.00000,  1,  100.0,  150.000,  45.000
7110,  '1',  196.000,  40.795,  99.760,  -21.760,  1.04000,  0,  235.200,  0.00000,  0.13730,  0.00000,  0.00000,  1.00000,  1,  100.0,  196.000,  58.800
7111,  '1',  196.000,  39.772,  99.760,  -21.760,  1.04000,  0,  235.200,  0.00000,  0.19180,  0.00000,  0.00000,  1.00000,  1,  100.0,  196.000,  58.800
7112,  '1',  196.000,  62.768,  99.760,  -21.760,  1.04000,  0,  235.200,  0.00000,  0.17280,  0.00000,  0.00000,  1.00000,  1,  100.0,  196.000,  58.800
7113,  '1',  196.000,  34.155,  99.760,  -21.760,  1.04000,  0,  235.200,  0.00000,  0.16060,  0.00000,  0.00000,  1.00000,  1,  100.0,  196.000,  58.800
7114,  '1',  196.000,  66.523,  99.760,  -21.760,  1.04000,  0,  235.200,  0.00000,  0.20370,  0.00000,  0.00000,  1.00000,  1,  100.0,  196.000,  58.800
7115,  '1',  196.000,  66.884,  99.760,  -21.760,  1.04000,  0,  235.200,  0.00000,  0.17540,  0.00000,  0.00000,  1.00000,  1,  100.0,  196.000,  58.800
7134,  '1',  206.550,  -22.930,  105.130,  -22.930,  1.00000,  0,  247.860,  0.00000,  0.12450,  0.00000,  0.00000,  1.00000,  1,  100.0,  206.550,  61.970
7135,  '1',  206.550,  -22.930,  105.130,  -22.930,  1.00000,  0,  247.860,  0.00000,  0.10080,  0.00000,  0.00000,  1.00000,  1,  100.0,  206.550,  61.970
7136,  '1',  206.550,  -22.930,  105.130,  -22.930,  1.00000,  0,  247.860,  0.00000,  0.12110,  0.00000,  0.00000,  1.00000,  1,  100.0,  206.550,  61.970
7137,  '1',  206.550,  -22.930,  105.130,  -22.930,  1.00000,  0,  247.860,  0.00000,  0.35250,  0.00000,  0.00000,  1.00000,  1,  100.0,  206.550,  61.970
7138,  '1',  380.700,  -42.260,  193.780,  -42.260,  1.00000,  0,  456.840,  0.00000,  0.12060,  0.00000,  0.00000,  1.00000,  1,  100.0,  380.700,  114.210
7162,  '1',  79.630,  56.300,  56.300,  -12.280,  1.04000,  0,  132.720,  0.00000,  0.21300,  0.00000,  0.00000,  1.00000,  1,  100.0,  110.600,  33.180
7163,  '1',  79.630,  56.300,  56.300,  -12.280,  1.04000,  0,  132.720,  0.00000,  0.10860,  0.00000,  0.00000,  1.00000,  1,  100.0,  110.600,  33.180
7164,  '1',  79.630,  56.300,  56.300,  -12.280,  1.04000,  0,  132.720,  0.00000,  0.20360,  0.00000,  0.00000,  1.00000,  1,  100.0,  110.600,  33.180
...
 0 /End of Generator data, Begin Branch data
1048,  1049,  '99',  0.00256,  0.33343,  0.00000,  0.00,  0.00,  0.00,  0.00000,  0.000,  0.00000,  0.00000,  0.00000,  0.00000,  1
1048,  1053,  '99',  0.00259,  0.24926,  0.00000,  0.00,  0.00,  0.00,  0.00000,  0.000,  0.00000,  0.00000,  0.00000,  0.00000,  1
1048,  1072,  '99',  0.77789,  4.17128,  0.00000,  0.00,  0.00,  0.00,  0.00000,  0.000,  0.00000,  0.00000,  0.00000,  0.00000,  1
1048,  1075,  '99',  0.78696,  4.87677,  0.00000,  0.00,  0.00,  0.00,  0.00000,  0.000,  0.00000,  0.00000,  0.00000,  0.00000,  1
1048,  1076,  '99',  0.36830,  2.41828,  0.00000,  0.00,  0.00,  0.00,  0.00000,  0.000,  0.00000,  0.00000,  0.00000,  0.00000,  1
1048,  1081,  '99',  0.16674,  1.03324,  0.00000,  0.00,  0.00,  0.00,  0.00000,  0.000,  0.00000,  0.00000,  0.00000,  0.00000,  1
1049,  1053,  '99',  -0.00763,  0.44613,  0.00000,  0.00,  0.00,  0.00,  0.00000,  0.000,  0.00000,  0.00000,  0.00000,  0.00000,  1
1049,  1076,  '99',  0.54007,  4.34518,  0.00000,  0.00,  0.00,  0.00,  0.00000,  0.000,  0.00000,  0.00000,  0.00000,  0.00000,  1
1049,  1081,  '99',  0.24753,  1.85700,  0.00000,  0.00,  0.00,  0.00,  0.00000,  0.000,  0.00000,  0.00000,  0.00000,  0.00000,  1
1053,  1076,  '99',  0.41246,  3.24722,  0.00000,  0.00,  0.00,  0.00,  0.00000,  0.000,  0.00000,  0.00000,  0.00000,  0.00000,  1
1053,  1081,  '99',  0.00296,  0.02937,  0.00000,  0.00,  0.00,  0.00,  0.00000,  0.000,  0.00000,  0.00000,  0.00000,  0.00000,  1
1072,  1073,  '99',  0.12958,  1.19943,  0.00000,  0.00,  0.00,  0.00,  0.00000,  0.000,  0.00000,  0.00000,  0.00000,  0.00000,  1
1072,  1074,  '99',  0.06224,  1.14946,  0.00000,  0.00,  0.00,  0.00,  0.00000,  0.000,  0.00000,  0.00000,  0.00000,  0.00000,  1
1072,  1075,  '99',  0.04176,  0.92005,  0.00000,  0.00,  0.00,  0.00,  0.00000,  0.000,  0.00000,  0.00000,  0.00000,  0.00000,  1
1072,  1076,  '99',  0.01664,  0.45577,  0.00000,  0.00,  0.00,  0.00,  0.00000,  0.000,  0.00000,  0.00000,  0.00000,  0.00000,  1
1072,  1077,  '99',  0.06803,  1.11192,  0.00000,  0.00,  0.00,  0.00,  0.00000,  0.000,  0.00000,  0.00000,  0.00000,  0.00000,  1
1072,  1081,  '99',  0.02408,  0.54682,  0.00000,  0.00,  0.00,  0.00,  0.00000,  0.000,  0.00000,  0.00000,  0.00000,  0.00000,  1
1072,  5236,  '99',  0.41384,  4.52839,  0.00000,  0.00,  0.00,  0.00,  0.00000,  0.000,  0.00000,  0.00000,  0.00000,  0.00000,  1
1072,  5260,  '99',  0.08618,  1.72802,  0.00000,  0.00,  0.00,  0.00,  0.00000,  0.000,  0.00000,  0.00000,  0.00000,  0.00000,  1
1072,  5399,  '99',  0.05744,  3.27740,  0.00000,  0.00,  0.00,  0.00,  0.00000,  0.000,  0.00000,  0.00000,  0.00000,  0.00000,  1
1072,  5413,  '99',  0.09442,  1.93534,  0.00000,  0.00,  0.00,  0.00,  0.00000,  0.000,  0.00000,  0.00000,  0.00000,  0.00000,  1
1073,  1074,  '99',  0.16123,  1.74802,  0.00000,  0.00,  0.00,  0.00,  0.00000,  0.000,  0.00000,  0.00000,  0.00000,  0.00000,  1
1073,  1075,  '99',  0.11678,  1.39962,  0.00000,  0.00,  0.00,  0.00,  0.00000,  0.000,  0.00000,  0.00000,  0.00000,  0.00000,  1
1073,  1076,  '99',  0.05169,  0.69356,  0.00000,  0.00,  0.00,  0.00,  0.00000,  0.000,  0.00000,  0.00000,  0.00000,  0.00000,  1
1073,  1077,  '99',  0.16789,  1.69048,  0.00000,  0.00,  0.00,  0.00,  0.00000,  0.000,  0.00000,  0.00000,  0.00000,  0.00000,  1
1073,  1081,  '99',  0.06828,  0.83189,  0.00000,  0.00,  0.00,  0.00,  0.00000,  0.000,  0.00000,  0.00000,  0.00000,  0.00000,  1
1073,  5260,  '99',  0.23113,  2.62828,  0.00000,  0.00,  0.00,  0.00,  0.00000,  0.000,  0.00000,  0.00000,  0.00000,  0.00000,  1
1073,  5399,  '99',  0.27683,  4.99099,  0.00000,  0.00,  0.00,  0.00,  0.00000,  0.000,  0.00000,  0.00000,  0.00000,  0.00000,  1
1073,  5413,  '99',  0.25567,  2.94374,  0.00000,  0.00,  0.00,  0.00,  0.00000,  0.000,  0.00000,  0.00000,  0.00000,  0.00000,  1
1074,  1075,  '99',  0.03981,  1.33955,  0.00000,  0.00,  0.00,  0.00,  0.00000,  0.000,  0.00000,  0.00000,  0.00000,  0.00000,  1
1074,  1076,  '99',  0.01384,  0.66348,  0.00000,  0.00,  0.00,  0.00,  0.00000,  0.000,  0.00000,  0.00000,  0.00000,  0.00000,  1
1074,  1077,  '99',  0.07367,  1.61929,  0.00000,  0.00,  0.00,  0.00,  0.00000,  0.000,  0.00000,  0.00000,  0.00000,  0.00000,  1
1074,  1081,  '99',  0.02259,  0.79613,  0.00000,  0.00,  0.00,  0.00,  0.00000,  0.000,  0.00000,  0.00000,  0.00000,  0.00000,  1
1074,  5260,  '99',  0.08605,  2.51607,  0.00000,  0.00,  0.00,  0.00,  0.00000,  0.000,  0.00000,  0.00000,  0.00000,  0.00000,  1
1074,  5399,  '99',  0.00897,  4.76964,  0.00000,  0.00,  0.00,  0.00,  0.00000,  0.000,  0.00000,  0.00000,  0.00000,  0.00000,  1
1074,  5413,  '99',  0.09332,  2.81790,  0.00000,  0.00,  0.00,  0.00,  0.00000,  0.000,  0.00000,  0.00000,  0.00000,  0.00000,  1
1075,  1076,  '99',  0.00644,  0.53091,  0.00000,  0.00,  0.00,  0.00,  0.00000,  0.000,  0.00000,  0.00000,  0.00000,  0.00000,  1
1075,  1077,  '99',  0.04762,  1.29603,  0.00000,  0.00,  0.00,  0.00,  0.00000,  0.000,  0.00000,  0.00000,  0.00000,  0.00000,  1
1075,  1081,  '99',  0.01251,  0.63710,  0.00000,  0.00,  0.00,  0.00,  0.00000,  0.000,  0.00000,  0.00000,  0.00000,  0.00000,  1
1075,  5260,  '99',  0.05126,  2.01358,  0.00000,  0.00,  0.00,  0.00,  0.00000,  0.000,  0.00000,  0.00000,  0.00000,  0.00000,  1
1075,  5399,  '99',  -0.02616,  3.81600,  0.00000,  0.00,  0.00,  0.00,  0.00000,  0.000,  0.00000,  0.00000,  0.00000,  0.00000,  1
1075,  5413,  '99',  0.05497,  2.25510,  0.00000,  0.00,  0.00,  0.00,  0.00000,  0.000,  0.00000,  0.00000,  0.00000,  0.00000,  1
1076,  1077,  '99',  0.01790,  0.64196,  0.00000,  0.00,  0.00,  0.00,  0.00000,  0.000,  0.00000,  0.00000,  0.00000,  0.00000,  1
1076,  1081,  '99',  0.00340,  0.31553,  0.00000,  0.00,  0.00,  0.00,  0.00000,  0.000,  0.00000,  0.00000,  0.00000,  0.00000,  1
1076,  3045,  '99',  0.06000,  3.87057,  0.00000,  0.00,  0.00,  0.00,  0.00000,  0.000,  0.00000,  0.00000,  0.00000,  0.00000,  1
1076,  5236,  '99',  0.15170,  2.61707,  0.00000,  0.00,  0.00,  0.00,  0.00000,  0.000,  0.00000,  0.00000,  0.00000,  0.00000,  1
1076,  5260,  '99',  0.01655,  0.99729,  0.00000,  0.00,  0.00,  0.00,  0.00000,  0.000,  0.00000,  0.00000,  0.00000,  0.00000,  1
1076,  5399,  '99',  -0.02968,  1.88945,  0.00000,  0.00,  0.00,  0.00,  0.00000,  0.000,  0.00000,  0.00000,  0.00000,  0.00000,  1
1076,  5413,  '99',  0.01733,  1.11690,  0.00000,  0.00,  0.00,  0.00,  0.00000,  0.000,  0.00000,  0.00000,  0.00000,  0.00000,  1
1077,  1081,  '99',  0.02727,  0.77027,  0.00000,  0.00,  0.00,  0.00,  0.00000,  0.000,  0.00000,  0.00000,  0.00000,  0.00000,  1
1077,  5260,  '99',  0.10036,  2.43425,  0.00000,  0.00,  0.00,  0.00,  0.00000,  0.000,  0.00000,  0.00000,  0.00000,  0.00000,  1
1077,  5399,  '99',  0.04107,  4.61557,  0.00000,  0.00,  0.00,  0.00,  0.00000,  0.000,  0.00000,  0.00000,  0.00000,  0.00000,  1
1077,  5413,  '99',  0.10945,  2.72628,  0.00000,  0.00,  0.00,  0.00,  0.00000,  0.000,  0.00000,  0.00000,  0.00000,  0.00000,  1
1081,  2019,  '99',  0.41475,  4.14534,  0.00000,  0.00,  0.00,  0.00,  0.00000,  0.000,  0.00000,  0.00000,  0.00000,  0.00000,  1
1081,  2127,  '99',  0.56102,  3.46439,  0.00000,  0.00,  0.00,  0.00,  0.00000,  0.000,  0.00000,  0.00000,  0.00000,  0.00000,  1
1081,  3028,  '99',  0.13132,  1.32913,  0.00000,  0.00,  0.00,  0.00,  0.00000,  0.000,  0.00000,  0.00000,  0.00000,  0.00000,  1
1081,  3045,  '99',  0.01753,  0.46626,  0.00000,  0.00,  0.00,  0.00,  0.00000,  0.000,  0.00000,  0.00000,  0.00000,  0.00000,  1
1081,  4026,  '99',  0.16373,  3.89051,  0.00000,  0.00,  0.00,  0.00,  0.00000,  0.000,  0.00000,  0.00000,  0.00000,  0.00000,  1
1081,  4115,  '99',  0.10946,  2.68871,  0.00000,  0.00,  0.00,  0.00,  0.00000,  0.000,  0.00000,  0.00000,  0.00000,  0.00000,  1
1081,  4116,  '99',  0.14289,  2.82789,  0.00000,  0.00,  0.00,  0.00,  0.00000,  0.000,  0.00000,  0.00000,  0.00000,  0.00000,  1
1081,  5236,  '99',  0.07921,  0.69524,  0.00000,  0.00,  0.00,  0.00,  0.00000,  0.000,  0.00000,  0.00000,  0.00000,  0.00000,  1
1081,  5243,  '99',  0.11445,  3.56323,  0.00000,  0.00,  0.00,  0.00,  0.00000,  0.000,  0.00000,  0.00000,  0.00000,  0.00000,  1
1081,  5260,  '99',  0.03596,  0.44120,  0.00000,  0.00,  0.00,  0.00,  0.00000,  0.000,  0.00000,  0.00000,  0.00000,  0.00000,  1
1081,  5399,  '99',  0.02012,  0.50479,  0.00000,  0.00,  0.00,  0.00,  0.00000,  0.000,  0.00000,  0.00000,  0.00000,  0.00000,  1
1081,  5413,  '99',  0.03969,  0.48780,  0.00000,  0.00,  0.00,  0.00,  0.00000,  0.000,  0.00000,  0.00000,  0.00000,  0.00000,  1
1081,  6349,  '99',  0.67117,  3.82599,  0.00000,  0.00,  0.00,  0.00,  0.00000,  0.000,  0.00000,  0.00000,  0.00000,  0.00000,  1
2001,  -2022,  '1',  0.00839,  0.03697,  0.01721,  187.00,  0.00,  0.00,  0.00000,  0.000,  0.00000,  0.00000,  0.00000,  0.00000,  1
2001,  -2027,  '1',  0.00955,  0.04062,  0.02032,  187.00,  0.00,  0.00,  0.00000,  0.000,  0.00000,  0.00000,  0.00000,  0.00000,  1
2001,  12001,  '1',  0.00000,  0.02019,  0.00000,  59.45,  0.00,  0.00,  1.00000,  -2.227,  0.00000,  0.00000,  0.00000,  0.00000,  1
2003,  2002,  '1',  0.00030,  0.01986,  0.00000,  981.00,  0.00,  0.00,  1.00000,  0.000,  0.00000,  0.00000,  0.00000,  0.00000,  1
2004,  2002,  '1',  0.00022,  0.01466,  0.00000,  635.00,  0.00,  0.00,  1.00000,  0.000,  0.00000,  0.00000,  0.00000,  0.00000,  1
2005,  2002,  '1',  0.00033,  0.01714,  0.00000,  645.00,  0.00,  0.00,  1.00000,  0.000,  0.00000,  0.00000,  0.00000,  0.00000,  1
2006,  2002,  '1',  0.00036,  0.02679,  0.00000,  636.00,  0.00,  0.00,  1.00000,  0.000,  0.00000,  0.00000,  0.00000,  0.00000,  1
2002,  -2021,  '1',  0.00097,  0.01175,  0.78032,  2295.00,  0.00,  0.00,  0.00000,  0.000,  0.00000,  0.00000,  0.00000,  0.00000,  1
2002,  2101,  '1',  0.00031,  0.00370,  0.24573,  2020.00,  0.00,  0.00,  0.00000,  0.000,  0.00000,  0.00000,  0.00000,  0.00000,  1
...